13
gdb 212	8.71953	3.56689	2.57362	2.0318	55.54	-0.2006	0.0463	0.2469	510.1975	0.110002	-249.387499	-249.381908	-249.380963	-249.416542	20.193	
C	 2.1997E-6	 1.4462618059	 0.0098312216	-0.335446
N	-0.0395853465	-0.0001481182	 0.0022628164	 0.039731
C	-0.0102031441	-0.7914294915	-1.1197711939	-0.096411
C	 0.0424480479	-2.1071237431	-0.7205292439	-0.16246
C	 0.051416093	-2.1148079393	 0.7011850782	-0.162537
C	 0.0029673515	-0.8035395846	 1.1152367693	-0.0964
H	 1.027926131	 1.828132226	 0.0028554018	 0.136776
H	-0.5211791052	 1.8337374247	-0.8690329378	 0.139105
H	-0.5054481987	 1.8237838058	 0.9020802045	 0.139122
H	-0.0304306812	-0.3464381728	-2.1023011685	 0.108555
H	 0.0571095205	-2.9656370805	-1.3743309873	 0.090693
H	 0.0741869784	-2.9803348886	 1.3454340259	 0.090693
H	-0.0055890963	-0.3691945839	 2.1026885337	 0.108578
84.7872	189.0812	356.3627	619.1378	624.1803	674.909	679.7685	740.2186	794.6395	847.8113	885.4596	986.4404	1065.0089	1082.5292	1112.0581	1115.044	1149.8349	1295.9374	1325.3584	1405.4785	1421.6329	1453.8035	1489.2357	1513.4836	1545.1919	1561.1991	3027.4816	3096.3939	3128.7982	3237.7763	3247.9307	3259.7673	3268.7513
CN1C=CC=C1	Cn1cccc1	
InChI=1S/C5H7N/c1-6-4-2-3-5-6/h2-5H,1H3	InChI=1S/C5H7N/c1-6-4-2-3-5-6/h2-5H,1H3
