3
gdb 5	0.	44.593883	44.593883	2.8937	12.99	-0.3604	0.0191	0.3796	48.7476	0.016601	-93.411888	-93.40937	-93.408425	-93.431246	6.278	
C	-0.0133239314	 1.1324657151	 0.0082758861	-0.049656
N	 0.0023107217	-0.0191585871	 0.0019287305	-0.188473
H	-0.0278026991	 2.1989492963	 0.0141537903	 0.238128
799.0101	799.0101	2198.4393	3490.3686
C#N	C#N	
InChI=1S/CHN/c1-2/h1H	InChI=1S/CHN/c1-2/h1H
